<?xml version="1.0" encoding="UTF-8"?>

<!-- generated on 2026-03-02 10:42:40.744568 by osmWebWizard.py v1_23_0+0000-ad042bb7d28
  options: 
-->

<additional xmlns:xsi="http://www.w3.org/2001/XMLSchema-instance" xsi:noNamespaceSchemaLocation="http://sumo.dlr.de/xsd/additional_file.xsd">
   <edgeData id="wizard_example" period="3600" file="edgeData.xml"/>
</additional>
